.SUBCKT MUX2 Y S D1 D0
M0 VDD S 3 VDD n09_ckt W=0.12u L=30.00n
M1 11 D1 VDD VDD n09_ckt W=0.12u L=30.00n
M2 7 3 11 VDD n09_ckt W=0.12u L=30.00n
M3 12 S 7 VDD n09_ckt W=0.12u L=30.00n
M4 VDD D0 12 VDD n09_ckt W=0.12u L=30.00n
M5 Y 7 VDD VDD n09_ckt W=0.12u L=30.00n
M6 VSS S 3 VSS n09_ckt W=0.12u L=30.00n
M7 9 D1 VSS VSS n09_ckt W=0.12u L=30.00n
M8 7 S 9 VSS n09_ckt W=0.12u L=30.00n
M9 10 3 7 VSS n09_ckt W=0.12u L=30.00n
M10 VSS D0 10 VSS n09_ckt W=0.12u L=30.00n
M11 Y 7 VSS VSS n09_ckt W=0.12u L=30.00n
.ENDS
