.SUBCKT NAND2V1 A1 A2 ZN VDD VSS
MM1 ZN A1 net18 VSS n09_ckt W=0.12u L=30.00n
MMN1 net18 A2 VSS VSS n09_ckt W=0.12u L=30.00n
MM0 ZN A2 VDD VDD p09_ckt W=0.12u L=30.00n
MMP1 ZN A1 VDD VDD p09_ckt W=0.12u L=30.00n
.ENDS